<?xml version="1.0" encoding="UTF-8"?>

<!-- generated on 11/05/20 09:58:47 by Eclipse SUMO netconvert Version 1.5.0
<configuration xmlns:xsi="http://www.w3.org/2001/XMLSchema-instance" xsi:noNamespaceSchemaLocation="http://sumo.dlr.de/xsd/netconvertConfiguration.xsd">

    <input>
        <osm-files value="tsudanuma.osm"/>
    </input>

    <output>
        <output-file value="tsudanuma.net.xml"/>
    </output>

    <projection>
        <proj.utm value="true"/>
    </projection>

    <report>
        <aggregate-warnings value="5"/>
    </report>

</configuration>
-->

<net version="1.3" junctionCornerDetail="5" limitTurnSpeed="5.50" xmlns:xsi="http://www.w3.org/2001/XMLSchema-instance" xsi:noNamespaceSchemaLocation="http://sumo.dlr.de/xsd/net_file.xsd">

    <location netOffset="-410784.35,-3949674.59" convBoundary="0.00,0.00,1187.17,860.25" origBoundary="140.014001,35.687017,140.027081,35.694705" projParameter="+proj=utm +zone=54 +ellps=WGS84 +datum=WGS84 +units=m +no_defs"/>

    <type id="highway.bridleway" priority="1" numLanes="1" speed="2.78" allow="pedestrian" oneway="1" width="2.00"/>
    <type id="highway.bus_guideway" priority="1" numLanes="1" speed="27.78" allow="bus" oneway="1"/>
    <type id="highway.cycleway" priority="1" numLanes="1" speed="8.33" allow="bicycle" oneway="0" width="1.00"/>
    <type id="highway.footway" priority="1" numLanes="1" speed="2.78" allow="pedestrian" oneway="1" width="2.00"/>
    <type id="highway.ford" priority="1" numLanes="1" speed="2.78" allow="army" oneway="0"/>
    <type id="highway.living_street" priority="2" numLanes="1" speed="2.78" disallow="tram rail_urban rail rail_electric rail_fast ship" oneway="0"/>
    <type id="highway.motorway" priority="14" numLanes="2" speed="39.44" allow="private emergency authority army vip passenger hov taxi bus coach delivery truck trailer motorcycle evehicle custom1 custom2" oneway="1"/>
    <type id="highway.motorway_link" priority="9" numLanes="1" speed="22.22" allow="private emergency authority army vip passenger hov taxi bus coach delivery truck trailer motorcycle evehicle custom1 custom2" oneway="1"/>
    <type id="highway.path" priority="1" numLanes="1" speed="2.78" allow="pedestrian bicycle" oneway="1" width="2.00"/>
    <type id="highway.pedestrian" priority="1" numLanes="1" speed="2.78" allow="pedestrian" oneway="1" width="2.00"/>
    <type id="highway.primary" priority="12" numLanes="2" speed="27.78" disallow="tram rail_urban rail rail_electric rail_fast ship" oneway="0"/>
    <type id="highway.primary_link" priority="7" numLanes="1" speed="22.22" disallow="tram rail_urban rail rail_electric rail_fast ship" oneway="0"/>
    <type id="highway.raceway" priority="15" numLanes="2" speed="83.33" allow="vip" oneway="0"/>
    <type id="highway.residential" priority="3" numLanes="1" speed="13.89" disallow="tram rail_urban rail rail_electric rail_fast ship" oneway="0"/>
    <type id="highway.secondary" priority="11" numLanes="1" speed="27.78" disallow="tram rail_urban rail rail_electric rail_fast ship" oneway="0"/>
    <type id="highway.secondary_link" priority="6" numLanes="1" speed="22.22" disallow="tram rail_urban rail rail_electric rail_fast ship" oneway="0"/>
    <type id="highway.service" priority="1" numLanes="1" speed="5.56" allow="pedestrian delivery bicycle" oneway="0"/>
    <type id="highway.stairs" priority="1" numLanes="1" speed="1.39" allow="pedestrian" oneway="1" width="2.00"/>
    <type id="highway.step" priority="1" numLanes="1" speed="1.39" allow="pedestrian" oneway="1" width="2.00"/>
    <type id="highway.steps" priority="1" numLanes="1" speed="1.39" allow="pedestrian" oneway="1" width="2.00"/>
    <type id="highway.tertiary" priority="10" numLanes="1" speed="22.22" disallow="tram rail_urban rail rail_electric rail_fast ship" oneway="0"/>
    <type id="highway.tertiary_link" priority="5" numLanes="1" speed="22.22" disallow="tram rail_urban rail rail_electric rail_fast ship" oneway="0"/>
    <type id="highway.track" priority="1" numLanes="1" speed="5.56" disallow="tram rail_urban rail rail_electric rail_fast ship" oneway="0"/>
    <type id="highway.trunk" priority="13" numLanes="2" speed="27.78" disallow="pedestrian bicycle tram rail_urban rail rail_electric rail_fast ship" oneway="0"/>
    <type id="highway.trunk_link" priority="8" numLanes="1" speed="22.22" disallow="pedestrian bicycle tram rail_urban rail rail_electric rail_fast ship" oneway="0"/>
    <type id="highway.unclassified" priority="4" numLanes="1" speed="13.89" disallow="tram rail_urban rail rail_electric rail_fast ship" oneway="0"/>
    <type id="highway.unsurfaced" priority="1" numLanes="1" speed="8.33" disallow="tram rail_urban rail rail_electric rail_fast ship" oneway="0"/>
    <type id="railway.highspeed" priority="21" numLanes="1" speed="69.44" allow="rail_fast" oneway="1"/>
    <type id="railway.light_rail" priority="19" numLanes="1" speed="27.78" allow="rail_urban" oneway="1"/>
    <type id="railway.preserved" priority="16" numLanes="1" speed="27.78" allow="rail" oneway="1"/>
    <type id="railway.rail" priority="20" numLanes="1" speed="44.44" allow="rail" oneway="1"/>
    <type id="railway.subway" priority="18" numLanes="1" speed="27.78" allow="rail_urban" oneway="1"/>
    <type id="railway.tram" priority="17" numLanes="1" speed="13.89" allow="tram" oneway="1"/>

    <edge id=":1360708230_0" function="internal">
        <lane id=":1360708230_0_0" index="0" disallow="tram rail_urban rail rail_electric rail_fast ship" speed="3.65" length="4.67" shape="1133.40,30.40 1133.54,28.97 1134.05,28.24 1134.95,28.21 1136.22,28.89"/>
    </edge>
    <edge id=":1360708331_0" function="internal">
        <lane id=":1360708331_0_0" index="0" disallow="tram rail_urban rail rail_electric rail_fast ship" speed="7.51" length="14.93" shape="1173.69,194.75 1171.20,193.36 1168.53,193.97 1165.69,196.56 1162.67,201.15"/>
    </edge>
    <edge id=":1360708331_1" function="internal">
        <lane id=":1360708331_1_0" index="0" disallow="tram rail_urban rail rail_electric rail_fast ship" speed="10.56" length="16.19" shape="1173.69,194.75 1171.20,193.22 1167.78,192.67 1163.44,193.07 1158.17,194.45"/>
    </edge>
    <edge id=":1360708331_2" function="internal">
        <lane id=":1360708331_2_0" index="0" disallow="tram rail_urban rail rail_electric rail_fast ship" speed="11.23" length="15.78" shape="1173.69,194.75 1170.28,190.95 1167.99,187.42 1166.83,184.15 1166.80,181.15"/>
    </edge>
    <edge id=":1360708331_3" function="internal">
        <lane id=":1360708331_3_0" index="0" disallow="tram rail_urban rail rail_electric rail_fast ship" speed="6.90" length="13.27" shape="1173.69,194.75 1171.29,191.63 1170.76,188.88 1172.11,186.51 1175.34,184.51"/>
    </edge>
    <edge id=":1360708331_4" function="internal">
        <lane id=":1360708331_4_0" index="0" disallow="tram rail_urban rail rail_electric rail_fast ship" speed="16.78" length="19.75" shape="1176.61,187.45 1172.84,189.82 1168.83,193.41 1165.23,197.44 1162.67,201.15"/>
    </edge>
    <edge id=":1360708331_5" function="internal">
        <lane id=":1360708331_5_0" index="0" disallow="tram rail_urban rail rail_electric rail_fast ship" speed="22.22" length="19.73" shape="1176.61,187.45 1172.47,189.17 1167.46,191.12 1162.42,192.98 1158.17,194.45"/>
    </edge>
    <edge id=":1360708331_6" function="internal">
        <lane id=":1360708331_6_0" index="0" disallow="tram rail_urban rail rail_electric rail_fast ship" speed="7.21" length="7.50" shape="1176.61,187.45 1171.52,189.00 1169.37,188.66"/>
    </edge>
    <edge id=":1360708331_7" function="internal">
        <lane id=":1360708331_7_0" index="0" disallow="tram rail_urban rail rail_electric rail_fast ship" speed="3.65" length="2.34" shape="1176.61,187.45 1175.19,187.19 1174.51,186.62"/>
    </edge>
    <edge id=":1360708331_20" function="internal">
        <lane id=":1360708331_20_0" index="0" disallow="tram rail_urban rail rail_electric rail_fast ship" speed="7.21" length="8.96" shape="1169.37,188.66 1168.19,188.47 1166.61,185.85 1166.80,181.15"/>
    </edge>
    <edge id=":1360708331_21" function="internal">
        <lane id=":1360708331_21_0" index="0" disallow="tram rail_urban rail rail_electric rail_fast ship" speed="3.65" length="2.34" shape="1174.51,186.62 1174.56,185.73 1175.34,184.51"/>
    </edge>
    <edge id=":1360708331_8" function="internal">
        <lane id=":1360708331_8_0" index="0" disallow="tram rail_urban rail rail_electric rail_fast ship" speed="5.38" length="8.47" shape="1169.94,181.74 1169.89,184.00 1170.78,185.22 1172.59,185.39 1175.34,184.51"/>
    </edge>
    <edge id=":1360708331_9" function="internal">
        <lane id=":1360708331_9_0" index="0" disallow="tram rail_urban rail rail_electric rail_fast ship" speed="22.22" length="20.78" shape="1169.94,181.74 1168.76,186.23 1166.88,191.65 1164.70,196.96 1162.67,201.15"/>
    </edge>
    <edge id=":1360708331_10" function="internal">
        <lane id=":1360708331_10_0" index="0" disallow="tram rail_urban rail rail_electric rail_fast ship" speed="11.21" length="9.24" shape="1169.94,181.74 1168.44,185.49 1165.61,189.26 1165.24,189.58"/>
    </edge>
    <edge id=":1360708331_11" function="internal">
        <lane id=":1360708331_11_0" index="0" disallow="tram rail_urban rail rail_electric rail_fast ship" speed="3.65" length="2.45" shape="1169.94,181.74 1168.94,182.77 1168.08,183.02 1167.98,182.95"/>
    </edge>
    <edge id=":1360708331_22" function="internal">
        <lane id=":1360708331_22_0" index="0" disallow="tram rail_urban rail rail_electric rail_fast ship" speed="11.21" length="8.64" shape="1165.24,189.58 1162.00,192.44 1158.17,194.45"/>
    </edge>
    <edge id=":1360708331_23" function="internal">
        <lane id=":1360708331_23_0" index="0" disallow="tram rail_urban rail rail_electric rail_fast ship" speed="3.65" length="2.22" shape="1167.98,182.95 1167.37,182.48 1166.80,181.15"/>
    </edge>
    <edge id=":1360708331_12" function="internal">
        <lane id=":1360708331_12_0" index="0" disallow="tram rail_urban rail rail_electric rail_fast ship" speed="10.23" length="14.79" shape="1157.19,191.40 1160.86,189.76 1163.69,187.51 1165.67,184.64 1166.80,181.15"/>
    </edge>
    <edge id=":1360708331_13" function="internal">
        <lane id=":1360708331_13_0" index="0" disallow="tram rail_urban rail rail_electric rail_fast ship" speed="22.22" length="19.42" shape="1157.19,191.40 1161.38,189.96 1166.33,188.13 1171.24,186.21 1175.34,184.51"/>
    </edge>
    <edge id=":1360708331_14" function="internal">
        <lane id=":1360708331_14_0" index="0" disallow="tram rail_urban rail rail_electric rail_fast ship" speed="7.21" length="6.53" shape="1157.19,191.40 1162.52,190.39 1163.51,190.87"/>
    </edge>
    <edge id=":1360708331_15" function="internal">
        <lane id=":1360708331_15_0" index="0" disallow="tram rail_urban rail rail_electric rail_fast ship" speed="3.65" length="2.34" shape="1157.19,191.40 1158.58,191.79 1159.20,192.43"/>
    </edge>
    <edge id=":1360708331_24" function="internal">
        <lane id=":1360708331_24_0" index="0" disallow="tram rail_urban rail rail_electric rail_fast ship" speed="7.21" length="11.89" shape="1163.51,190.87 1165.21,191.68 1165.26,195.27 1162.67,201.15"/>
    </edge>
    <edge id=":1360708331_25" function="internal">
        <lane id=":1360708331_25_0" index="0" disallow="tram rail_urban rail rail_electric rail_fast ship" speed="3.65" length="2.34" shape="1159.20,192.43 1159.07,193.31 1158.17,194.45"/>
    </edge>
    <edge id=":1360708331_16" function="internal">
        <lane id=":1360708331_16_0" index="0" disallow="tram rail_urban rail rail_electric rail_fast ship" speed="5.16" length="8.60" shape="1159.83,199.67 1161.19,196.71 1161.37,194.85 1160.36,194.10 1158.17,194.45"/>
    </edge>
    <edge id=":1360708331_17" function="internal">
        <lane id=":1360708331_17_0" index="0" disallow="tram rail_urban rail rail_electric rail_fast ship" speed="22.22" length="19.84" shape="1159.83,199.67 1161.82,195.62 1163.88,190.62 1165.67,185.50 1166.80,181.15"/>
    </edge>
    <edge id=":1360708331_18" function="internal">
        <lane id=":1360708331_18_0" index="0" disallow="tram rail_urban rail rail_electric rail_fast ship" speed="17.65" length="7.09" shape="1159.83,199.67 1162.63,195.74 1164.16,194.07"/>
    </edge>
    <edge id=":1360708331_19" function="internal">
        <lane id=":1360708331_19_0" index="0" disallow="tram rail_urban rail rail_electric rail_fast ship" speed="3.65" length="2.34" shape="1159.83,199.67 1161.09,198.97 1161.99,198.99"/>
    </edge>
    <edge id=":1360708331_26" function="internal">
        <lane id=":1360708331_26_0" index="0" disallow="tram rail_urban rail rail_electric rail_fast ship" speed="17.65" length="14.78" shape="1164.16,194.07 1166.78,191.20 1171.32,187.11 1175.34,184.51"/>
    </edge>
    <edge id=":1360708331_27" function="internal">
        <lane id=":1360708331_27_0" index="0" disallow="tram rail_urban rail rail_electric rail_fast ship" speed="3.65" length="2.34" shape="1161.99,198.99 1162.51,199.71 1162.67,201.15"/>
    </edge>
    <edge id=":1362818998_0" function="internal">
        <lane id=":1362818998_0_0" index="0" disallow="tram rail_urban rail rail_electric rail_fast ship" speed="6.47" length="9.08" shape="722.06,450.24 719.91,448.94 717.88,448.65 715.97,449.37 714.19,451.10"/>
    </edge>
    <edge id=":1362818998_1" function="internal">
        <lane id=":1362818998_1_0" index="0" disallow="tram rail_urban rail rail_electric rail_fast ship" speed="7.92" length="14.36" shape="722.06,450.24 719.38,447.33 718.32,444.29 718.87,441.11 721.06,437.81"/>
    </edge>
    <edge id=":1362818998_2" function="internal">
        <lane id=":1362818998_2_0" index="0" disallow="tram rail_urban rail rail_electric rail_fast ship" speed="3.65" length="2.56" shape="722.06,450.24 721.64,448.86 721.83,447.98 722.04,447.89"/>
    </edge>
    <edge id=":1362818998_9" function="internal">
        <lane id=":1362818998_9_0" index="0" disallow="tram rail_urban rail rail_electric rail_fast ship" speed="3.65" length="2.11" shape="722.04,447.89 722.65,447.62 724.08,447.75"/>
    </edge>
    <edge id=":1362818998_3" function="internal">
        <lane id=":1362818998_3_0" index="0" disallow="tram rail_urban rail rail_electric rail_fast ship" speed="6.41" length="9.04" shape="723.45,439.93 722.08,442.01 721.72,444.01 722.39,445.92 724.08,447.75"/>
    </edge>
    <edge id=":1362818998_4" function="internal">
        <lane id=":1362818998_4_0" index="0" disallow="tram rail_urban rail rail_electric rail_fast ship" speed="22.22" length="14.50" shape="723.45,439.93 714.19,451.10"/>
    </edge>
    <edge id=":1362818998_5" function="internal">
        <lane id=":1362818998_5_0" index="0" disallow="tram rail_urban rail rail_electric rail_fast ship" speed="3.65" length="2.34" shape="723.45,439.93 722.05,440.30 721.19,440.07"/>
    </edge>
    <edge id=":1362818998_10" function="internal">
        <lane id=":1362818998_10_0" index="0" disallow="tram rail_urban rail rail_electric rail_fast ship" speed="3.65" length="2.34" shape="721.19,440.07 720.86,439.24 721.06,437.81"/>
    </edge>
    <edge id=":1362818998_6" function="internal">
        <lane id=":1362818998_6_0" index="0" disallow="tram rail_urban rail rail_electric rail_fast ship" speed="22.22" length="14.72" shape="711.66,449.14 721.06,437.81"/>
    </edge>
    <edge id=":1362818998_7" function="internal">
        <lane id=":1362818998_7_0" index="0" disallow="tram rail_urban rail rail_electric rail_fast ship" speed="7.97" length="6.30" shape="711.66,449.14 714.48,446.41 716.70,445.57"/>
    </edge>
    <edge id=":1362818998_8" function="internal">
        <lane id=":1362818998_8_0" index="0" disallow="tram rail_urban rail rail_electric rail_fast ship" speed="3.65" length="2.34" shape="711.66,449.14 713.02,448.68 713.90,448.85"/>
    </edge>
    <edge id=":1362818998_11" function="internal">
        <lane id=":1362818998_11_0" index="0" disallow="tram rail_urban rail rail_electric rail_fast ship" speed="7.97" length="8.04" shape="716.70,445.57 717.49,445.27 720.69,445.71 724.08,447.75"/>
    </edge>
    <edge id=":1362818998_12" function="internal">
        <lane id=":1362818998_12_0" index="0" disallow="tram rail_urban rail rail_electric rail_fast ship" speed="3.65" length="2.34" shape="713.90,448.85 714.29,449.66 714.19,451.10"/>
    </edge>
    <edge id=":1362819018_0" function="internal">
        <lane id=":1362819018_0_0" index="0" disallow="tram rail_urban rail rail_electric rail_fast ship" speed="22.22" length="15.92" shape="1152.48,385.94 1151.13,382.30 1149.86,378.43 1148.68,374.54 1147.57,370.81"/>
    </edge>
    <edge id=":1362819018_1" function="internal">
        <lane id=":1362819018_1_0" index="0" disallow="tram rail_urban rail rail_electric rail_fast ship" speed="10.71" length="5.44" shape="1152.48,385.94 1151.97,383.66 1152.13,381.00 1152.24,380.58"/>
    </edge>
    <edge id=":1362819018_2" function="internal">
        <lane id=":1362819018_2_0" index="0" disallow="tram rail_urban rail rail_electric rail_fast ship" speed="3.65" length="2.34" shape="1152.48,385.94 1152.77,384.53 1153.37,383.86"/>
    </edge>
    <edge id=":1362819018_9" function="internal">
        <lane id=":1362819018_9_0" index="0" disallow="tram rail_urban rail rail_electric rail_fast ship" speed="10.71" length="6.43" shape="1152.24,380.58 1152.96,377.96 1154.45,374.56"/>
    </edge>
    <edge id=":1362819018_10" function="internal">
        <lane id=":1362819018_10_0" index="0" disallow="tram rail_urban rail rail_electric rail_fast ship" speed="3.65" length="2.34" shape="1153.37,383.86 1154.26,383.94 1155.45,384.75"/>
    </edge>
    <edge id=":1362819018_3" function="internal">
        <lane id=":1362819018_3_0" index="0" disallow="tram rail_urban rail rail_electric rail_fast ship" speed="9.46" length="9.16" shape="1157.30,376.01 1156.06,378.77 1155.34,381.14 1155.13,383.14 1155.45,384.75"/>
    </edge>
    <edge id=":1362819018_4" function="internal">
        <lane id=":1362819018_4_0" index="0" disallow="tram rail_urban rail rail_electric rail_fast ship" speed="6.97" length="17.02" shape="1157.30,376.01 1154.77,379.47 1152.30,379.76 1149.90,376.87 1147.57,370.81"/>
    </edge>
    <edge id=":1362819018_5" function="internal">
        <lane id=":1362819018_5_0" index="0" disallow="tram rail_urban rail rail_electric rail_fast ship" speed="3.65" length="4.67" shape="1157.30,376.01 1156.05,376.72 1155.15,376.71 1154.62,375.99 1154.45,374.56"/>
    </edge>
    <edge id=":1362819018_6" function="internal">
        <lane id=":1362819018_6_0" index="0" disallow="tram rail_urban rail rail_electric rail_fast ship" speed="4.92" length="7.63" shape="1150.64,369.89 1151.74,373.05 1152.74,374.88 1153.64,375.38 1154.45,374.56"/>
    </edge>
    <edge id=":1362819018_7" function="internal">
        <lane id=":1362819018_7_0" index="0" disallow="tram rail_urban rail rail_electric rail_fast ship" speed="22.22" length="15.63" shape="1150.64,369.89 1151.73,373.58 1152.88,377.38 1154.11,381.14 1155.45,384.75"/>
    </edge>
    <edge id=":1362819018_8" function="internal">
        <lane id=":1362819018_8_0" index="0" disallow="tram rail_urban rail rail_electric rail_fast ship" speed="3.65" length="2.34" shape="1150.64,369.89 1150.21,371.27 1149.56,371.88"/>
    </edge>
    <edge id=":1362819018_11" function="internal">
        <lane id=":1362819018_11_0" index="0" disallow="tram rail_urban rail rail_electric rail_fast ship" speed="3.65" length="2.34" shape="1149.56,371.88 1148.68,371.73 1147.57,370.81"/>
    </edge>
    <edge id=":1362819066_0" function="internal">
        <lane id=":1362819066_0_0" index="0" disallow="tram rail_urban rail rail_electric rail_fast ship" speed="22.22" length="14.34" shape="1047.02,220.07 1033.04,223.28"/>
    </edge>
    <edge id=":1362819066_1" function="internal">
        <lane id=":1362819066_1_0" index="0" disallow="tram rail_urban rail rail_electric rail_fast ship" speed="7.68" length="6.32" shape="1047.02,220.07 1043.14,220.46 1040.79,219.86"/>
    </edge>
    <edge id=":1362819066_2" function="internal">
        <lane id=":1362819066_2_0" index="0" disallow="tram rail_urban rail rail_electric rail_fast ship" speed="3.65" length="2.34" shape="1047.02,220.07 1045.67,219.55 1045.10,218.86"/>
    </edge>
    <edge id=":1362819066_9" function="internal">
        <lane id=":1362819066_9_0" index="0" disallow="tram rail_urban rail rail_electric rail_fast ship" speed="7.68" length="6.81" shape="1040.79,219.86 1040.15,219.69 1038.05,217.78 1036.84,214.71"/>
    </edge>
    <edge id=":1362819066_10" function="internal">
        <lane id=":1362819066_10_0" index="0" disallow="tram rail_urban rail rail_electric rail_fast ship" speed="3.65" length="2.34" shape="1045.10,218.86 1045.32,217.99 1046.32,216.94"/>
    </edge>
    <edge id=":1362819066_3" function="internal">
        <lane id=":1362819066_3_0" index="0" disallow="tram rail_urban rail rail_electric rail_fast ship" speed="6.12" length="7.93" shape="1039.97,214.05 1040.69,215.78 1041.99,216.83 1043.86,217.22 1046.32,216.94"/>
    </edge>
    <edge id=":1362819066_4" function="internal">
        <lane id=":1362819066_4_0" index="0" disallow="tram rail_urban rail rail_electric rail_fast ship" speed="7.77" length="13.06" shape="1039.97,214.05 1040.10,217.34 1038.99,219.97 1036.64,221.96 1033.04,223.28"/>
    </edge>
    <edge id=":1362819066_5" function="internal">
        <lane id=":1362819066_5_0" index="0" disallow="tram rail_urban rail rail_electric rail_fast ship" speed="3.65" length="4.67" shape="1039.97,214.05 1039.43,215.39 1038.73,215.95 1037.87,215.72 1036.84,214.71"/>
    </edge>
    <edge id=":1362819066_6" function="internal">
        <lane id=":1362819066_6_0" index="0" disallow="tram rail_urban rail rail_electric rail_fast ship" speed="6.22" length="8.01" shape="1032.30,220.17 1034.62,219.35 1036.14,218.16 1036.88,216.62 1036.84,214.71"/>
    </edge>
    <edge id=":1362819066_7" function="internal">
        <lane id=":1362819066_7_0" index="0" disallow="tram rail_urban rail rail_electric rail_fast ship" speed="22.22" length="14.38" shape="1032.30,220.17 1046.32,216.94"/>
    </edge>
    <edge id=":1362819066_8" function="internal">
        <lane id=":1362819066_8_0" index="0" disallow="tram rail_urban rail rail_electric rail_fast ship" speed="3.65" length="2.34" shape="1032.30,220.17 1033.66,220.67 1034.23,221.36"/>
    </edge>
    <edge id=":1362819066_11" function="internal">
        <lane id=":1362819066_11_0" index="0" disallow="tram rail_urban rail rail_electric rail_fast ship" speed="3.65" length="2.34" shape="1034.23,221.36 1034.02,222.23 1033.04,223.28"/>
    </edge>
    <edge id=":1362819096_0" function="internal">
        <lane id=":1362819096_0_0" index="0" disallow="tram rail_urban rail rail_electric rail_fast ship" speed="7.15" length="9.85" shape="911.88,446.35 910.73,443.74 909.16,441.99 907.15,441.10 904.70,441.06"/>
    </edge>
    <edge id=":1362819096_1" function="internal">
        <lane id=":1362819096_1_0" index="0" disallow="tram rail_urban rail rail_electric rail_fast ship" speed="7.75" length="14.80" shape="911.88,446.35 911.25,442.25 912.15,439.13 914.59,436.98 918.57,435.80"/>
    </edge>
    <edge id=":1362819096_2" function="internal">
        <lane id=":1362819096_2_0" index="0" disallow="tram rail_urban rail rail_electric rail_fast ship" speed="3.65" length="4.67" shape="911.88,446.35 912.29,444.97 912.94,444.36 913.82,444.50 914.94,445.42"/>
    </edge>
    <edge id=":1362819096_3" function="internal">
        <lane id=":1362819096_3_0" index="0" disallow="tram rail_urban rail rail_electric rail_fast ship" speed="6.20" length="9.05" shape="919.03,438.97 916.60,439.69 915.11,441.00 914.55,442.91 914.94,445.42"/>
    </edge>
    <edge id=":1362819096_4" function="internal">
        <lane id=":1362819096_4_0" index="0" disallow="tram rail_urban rail rail_electric rail_fast ship" speed="22.22" length="14.48" shape="919.03,438.97 904.70,441.06"/>
    </edge>
    <edge id=":1362819096_5" function="internal">
        <lane id=":1362819096_5_0" index="0" disallow="tram rail_urban rail rail_electric rail_fast ship" speed="3.65" length="2.34" shape="919.03,438.97 917.73,438.35 917.22,437.61"/>
    </edge>
    <edge id=":1362819096_12" function="internal">
        <lane id=":1362819096_12_0" index="0" disallow="tram rail_urban rail rail_electric rail_fast ship" speed="3.65" length="2.34" shape="917.22,437.61 917.50,436.76 918.57,435.80"/>
    </edge>
    <edge id=":1362819096_6" function="internal">
        <lane id=":1362819096_6_0" index="0" allow="pedestrian delivery bicycle" speed="6.21" length="11.43" shape="910.88,431.46 910.47,433.91 911.62,435.45 914.32,436.08 918.57,435.80"/>
    </edge>
    <edge id=":1362819096_7" function="internal">
        <lane id=":1362819096_7_0" index="0" allow="pedestrian delivery bicycle" speed="9.72" length="14.89" shape="910.88,431.46 910.51,434.93 911.65,438.38 913.42,441.87 914.94,445.42"/>
    </edge>
    <edge id=":1362819096_8" function="internal">
        <lane id=":1362819096_8_0" index="0" allow="pedestrian delivery bicycle" speed="9.32" length="11.65" shape="910.88,431.46 909.08,435.53 907.46,438.48 906.00,440.33 904.70,441.06"/>
    </edge>
    <edge id=":1362819096_9" function="internal">
        <lane id=":1362819096_9_0" index="0" disallow="tram rail_urban rail rail_electric rail_fast ship" speed="22.22" length="14.48" shape="904.24,437.89 918.57,435.80"/>
    </edge>
    <edge id=":1362819096_10" function="internal">
        <lane id=":1362819096_10_0" index="0" disallow="tram rail_urban rail rail_electric rail_fast ship" speed="8.55" length="5.70" shape="904.24,437.89 907.92,437.92 909.78,438.70"/>
    </edge>
    <edge id=":1362819096_11" function="internal">
        <lane id=":1362819096_11_0" index="0" disallow="tram rail_urban rail rail_electric rail_fast ship" speed="3.65" length="2.34" shape="904.24,437.89 905.54,438.51 906.06,439.24"/>
    </edge>
    <edge id=":1362819096_13" function="internal">
        <lane id=":1362819096_13_0" index="0" disallow="tram rail_urban rail rail_electric rail_fast ship" speed="8.55" length="8.76" shape="909.78,438.70 910.93,439.18 913.27,441.68 914.94,445.42"/>
    </edge>
    <edge id=":1362819096_14" function="internal">
        <lane id=":1362819096_14_0" index="0" disallow="tram rail_urban rail rail_electric rail_fast ship" speed="3.65" length="2.34" shape="906.06,439.24 905.78,440.09 904.70,441.06"/>
    </edge>
    <edge id=":1362819099_0" function="internal">
        <lane id=":1362819099_0_0" index="0" disallow="tram rail_urban rail rail_electric rail_fast ship" speed="22.22" length="13.88" shape="925.99,251.32 922.64,252.58 919.52,253.85 916.45,255.20 913.22,256.73"/>
    </edge>
    <edge id=":1362819099_1" function="internal">
        <lane id=":1362819099_1_0" index="0" disallow="tram rail_urban rail rail_electric rail_fast ship" speed="7.63" length="6.25" shape="925.99,251.32 922.23,252.22 919.85,251.99"/>
    </edge>
    <edge id=":1362819099_2" function="internal">
        <lane id=":1362819099_2_0" index="0" disallow="tram rail_urban rail rail_electric rail_fast ship" speed="3.65" length="2.34" shape="925.99,251.32 924.58,250.98 923.93,250.37"/>
    </edge>
    <edge id=":1362819099_9" function="internal">
        <lane id=":1362819099_9_0" index="0" disallow="tram rail_urban rail rail_electric rail_fast ship" speed="7.63" length="6.53" shape="919.85,251.99 919.20,251.93 916.89,250.43 915.32,247.74"/>
    </edge>
    <edge id=":1362819099_10" function="internal">
        <lane id=":1362819099_10_0" index="0" disallow="tram rail_urban rail rail_electric rail_fast ship" speed="3.65" length="2.34" shape="923.93,250.37 924.04,249.48 924.89,248.31"/>
    </edge>
    <edge id=":1362819099_3" function="internal">
        <lane id=":1362819099_3_0" index="0" disallow="tram rail_urban rail rail_electric rail_fast ship" speed="6.05" length="7.65" shape="918.32,246.63 919.23,248.08 920.62,248.85 922.51,248.93 924.89,248.31"/>
    </edge>
    <edge id=":1362819099_4" function="internal">
        <lane id=":1362819099_4_0" index="0" disallow="tram rail_urban rail rail_electric rail_fast ship" speed="7.86" length="12.61" shape="918.32,246.63 918.89,249.68 918.23,252.38 916.34,254.73 913.22,256.73"/>
    </edge>
    <edge id=":1362819099_5" function="internal">
        <lane id=":1362819099_5_0" index="0" disallow="tram rail_urban rail rail_electric rail_fast ship" speed="3.65" length="4.67" shape="918.32,246.63 917.98,248.03 917.37,248.68 916.48,248.59 915.32,247.74"/>
    </edge>
    <edge id=":1362819099_6" function="internal">
        <lane id=":1362819099_6_0" index="0" disallow="tram rail_urban rail rail_electric rail_fast ship" speed="6.33" length="7.83" shape="911.81,253.86 913.86,252.58 915.13,251.14 915.61,249.52 915.32,247.74"/>
    </edge>
    <edge id=":1362819099_7" function="internal">
        <lane id=":1362819099_7_0" index="0" disallow="tram rail_urban rail rail_electric rail_fast ship" speed="22.22" length="14.21" shape="911.81,253.86 915.09,252.31 918.27,250.91 921.50,249.60 924.89,248.31"/>
    </edge>
    <edge id=":1362819099_8" function="internal">
        <lane id=":1362819099_8_0" index="0" disallow="tram rail_urban rail rail_electric rail_fast ship" speed="3.65" length="2.34" shape="911.81,253.86 913.24,254.05 913.95,254.59"/>
    </edge>
    <edge id=":1362819099_11" function="internal">